   1000.00  300.000000    0.000000
     25.00  300.000000    0.000000    0.756304    4.942470
     50.00  300.000000    0.000000    0.756304    4.942470
     75.00  300.000000    0.000000    0.756304    4.942470
    100.00  300.000000    0.000000    0.756304    4.942470
    125.00  300.000000    0.000000    0.756304    4.942470
    150.00  300.000000    0.000000    0.756304    4.942470
    175.00  300.000000    0.000000    0.756304    4.942470
    200.00  300.000000    0.000000    0.756304    4.942470
    225.00  300.000000    0.000000    0.756304    4.942470
    250.00  300.000000    0.000000    0.756304    4.942470
    275.00  300.000000    0.000000    0.756304    4.942470
    300.00  300.000000    0.000000    0.756304    4.942470
    325.00  300.000000    0.000000    0.756304    4.942470
    350.00  300.000000    0.000000    0.756304    4.942470
    375.00  300.000000    0.000000    0.756304    4.942470
    400.00  300.000000    0.000000    0.756304    4.942470
    425.00  300.000000    0.000000    0.756304    4.942470
    450.00  300.000000    0.000000    0.756304    4.942470
    475.00  300.000000    0.000000    0.756304    4.942470
    500.00  300.000000    0.000000    0.756304    4.942470
    525.00  300.000000    0.000000    0.756304    4.942470
    550.00  300.000000    0.000000    0.756304    4.942470
    575.00  300.000000    0.000000    0.756304    4.942470
    600.00  300.000000    0.000000    0.756304    4.942470
    625.00  300.000000    0.000000    0.756304    4.942470
    650.00  300.000000    0.000000    0.756304    4.942470
    675.00  300.000000    0.000000    0.756304    4.942470
    700.00  300.000000    0.000000    0.756304    4.942470
    725.00  300.000000    0.000000    0.756304    4.942470
    750.00  300.000000    0.000000    0.756304    4.942470
    775.00  300.000000    0.000000    0.756304    4.942470
    800.00  300.000000    0.000000    0.756304    4.942470
    825.00  300.000000    0.000000    0.756304    4.942470
    850.00  300.000000    0.000000    0.756304    4.942470
    875.00  300.000000    0.000000    0.756304    4.942470
    900.00  300.000000    0.000000    0.756304    4.942470
    925.00  300.000000    0.000000    0.756304    4.942470
    950.00  300.000000    0.000000    0.756304    4.942470
    975.00  300.000000    0.000000    0.756304    4.942470
   1000.00  300.000000    0.000000    0.756304    4.942470
   1025.00  300.075012    0.000000    0.756304    4.942470
   1050.00  300.150024    0.000000    0.756304    4.942470
   1075.00  300.225037    0.000000    0.756304    4.942470
   1100.00  300.300049    0.000000    0.756304    4.942470
   1125.00  300.375061    0.000000    0.756304    4.942470
   1150.00  300.450073    0.000000    0.756304    4.942470
   1175.00  300.525085    0.000000    0.756304    4.942470
   1200.00  300.600098    0.000000    0.756304    4.942470
   1225.00  300.675110    0.000000    0.756304    4.942470
   1250.00  300.750122    0.000000    0.756304    4.942470
   1275.00  300.825134    0.000000    0.756304    4.942470
   1300.00  300.900146    0.000000    0.756304    4.942470
   1325.00  300.975159    0.000000    0.756304    4.942470
   1350.00  301.050171    0.000000    0.756304    4.942470
   1375.00  301.125183    0.000000    0.756304    4.942470
   1400.00  301.200195    0.000000    0.756304    4.942470
   1425.00  301.275208    0.000000    0.756304    4.942470
   1450.00  301.350220    0.000000    0.756304    4.942470
   1475.00  301.425232    0.000000    0.756304    4.942470
   1500.00  301.500244    0.000000    0.756304    4.942470
   1525.00  301.575256    0.000000    0.756304    4.942470
   1550.00  301.650269    0.000000    0.756304    4.942470
   1575.00  301.725281    0.000000    0.756304    4.942470
   1600.00  301.800293    0.000000    0.756304    4.942470
   1625.00  301.875305    0.000000    0.756304    4.942470
   1650.00  301.950317    0.000000    0.756304    4.942470
   1675.00  302.025330    0.000000    0.756304    4.942470
   1700.00  302.100342    0.000000    0.756304    4.942470
   1725.00  302.175354    0.000000    0.756304    4.942470
   1750.00  302.250366    0.000000    0.756304    4.942470
   1775.00  302.325378    0.000000    0.756304    4.942470
   1800.00  302.400391    0.000000    0.756304    4.942470
   1825.00  302.475403    0.000000    0.756304    4.942470
   1850.00  302.550415    0.000000    0.756304    4.942470
   1875.00  302.625427    0.000000    0.756304    4.942470
   1900.00  302.700439    0.000000    0.756304    4.942470
   1925.00  302.775452    0.000000    0.756304    4.942470
   1950.00  302.850464    0.000000    0.756304    4.942470
   1975.00  302.925476    0.000000    0.756304    4.942470
   2000.00  303.000488    0.000000    0.756304    4.942470
   2025.00  303.075500    0.000000    0.756304    4.942470
   2050.00  303.150513    0.000000    0.756304    4.942470
   2075.00  303.225525    0.000000    0.756304    4.942470
   2100.00  303.300537    0.000000    0.756304    4.942470
   2125.00  303.375549    0.000000    0.756304    4.942470
   2150.00  303.450562    0.000000    0.756304    4.942470
   2175.00  303.525574    0.000000    0.756304    4.942470
   2200.00  303.600586    0.000000    0.756304    4.942470
   2225.00  303.675598    0.000000    0.756304    4.942470
   2250.00  303.750610    0.000000    0.756304    4.942470
   2275.00  303.825623    0.000000    0.756304    4.942470
   2300.00  303.900635    0.000000    0.756304    4.942470
   2325.00  303.975647    0.000000    0.756304    4.942470
   2350.00  304.050659    0.000000    0.756304    4.942470
   2375.00  304.125671    0.000000    0.756304    4.942470
   2400.00  304.200684    0.000000    0.756304    4.942470
   2425.00  304.275696    0.000000    0.756304    4.942470
   2450.00  304.350708    0.000000    0.756304    4.942470
   2475.00  304.425720    0.000000    0.756304    4.942470
   2500.00  304.500732    0.000000    0.756304    4.942470
   2525.00  304.575745    0.000000    0.756304    4.942470
   2550.00  304.650757    0.000000    0.756304    4.942470
   2575.00  304.725769    0.000000    0.756304    4.942470
   2600.00  304.800781    0.000000    0.756304    4.942470
   2625.00  304.875793    0.000000    0.756304    4.942470
   2650.00  304.950806    0.000000    0.756304    4.942470
   2675.00  305.025818    0.000000    0.756304    4.942470
   2700.00  305.100830    0.000000    0.756304    4.942470
   2725.00  305.175842    0.000000    0.756304    4.942470
   2750.00  305.250854    0.000000    0.756304    4.942470
   2775.00  305.325867    0.000000    0.756304    4.942470
   2800.00  305.400879    0.000000    0.756304    4.942470
   2825.00  305.475891    0.000000    0.756304    4.942470
   2850.00  305.550903    0.000000    0.756304    4.942470
   2875.00  305.625916    0.000000    0.756304    4.942470
   2900.00  305.700928    0.000000    0.756304    4.942470
   2925.00  305.775940    0.000000    0.756304    4.942470
   2950.00  305.850952    0.000000    0.756304    4.942470
   2975.00  305.925964    0.000000    0.756304    4.942470
   3000.00  306.000977    0.000000    0.756304    4.942470
   3025.00  306.075989    0.000000    0.756304    4.942470
   3050.00  306.151001    0.000000    0.756304    4.942470
   3075.00  306.226013    0.000000    0.756304    4.942470
   3100.00  306.301025    0.000000    0.756304    4.942470
   3125.00  306.376038    0.000000    0.756304    4.942470
   3150.00  306.451050    0.000000    0.756304    4.942470
   3175.00  306.526062    0.000000    0.756304    4.942470
   3200.00  306.601074    0.000000    0.756304    4.942470
   3225.00  306.676086    0.000000    0.756304    4.942470
   3250.00  306.751099    0.000000    0.756304    4.942470
   3275.00  306.826111    0.000000    0.756304    4.942470
   3300.00  306.901123    0.000000    0.756304    4.942470
   3325.00  306.976135    0.000000    0.756304    4.942470
   3350.00  307.051147    0.000000    0.756304    4.942470
   3375.00  307.126160    0.000000    0.756304    4.942470
   3400.00  307.201172    0.000000    0.756304    4.942470
   3425.00  307.276184    0.000000    0.756304    4.942470
   3450.00  307.351196    0.000000    0.756304    4.942470
   3475.00  307.426208    0.000000    0.756304    4.942470
   3500.00  307.501221    0.000000    0.756304    4.942470
   3525.00  307.576233    0.000000    0.756304    4.942470
   3550.00  307.651245    0.000000    0.756304    4.942470
   3575.00  307.726257    0.000000    0.756304    4.942470
   3600.00  307.801270    0.000000    0.756304    4.942470
   3625.00  307.876282    0.000000    0.756304    4.942470
   3650.00  307.951294    0.000000    0.756304    4.942470
   3675.00  308.026306    0.000000    0.756304    4.942470
   3700.00  308.101318    0.000000    0.756304    4.942470
   3725.00  308.176331    0.000000    0.756304    4.942470
   3750.00  308.251343    0.000000    0.756304    4.942470
   3775.00  308.326355    0.000000    0.756304    4.942470
   3800.00  308.401367    0.000000    0.756304    4.942470
   3825.00  308.476379    0.000000    0.756304    4.942470
   3850.00  308.551392    0.000000    0.756304    4.942470
   3875.00  308.626404    0.000000    0.756304    4.942470
   3900.00  308.701416    0.000000    0.756304    4.942470
   3925.00  308.776428    0.000000    0.756304    4.942470
   3950.00  308.851440    0.000000    0.756304    4.942470
   3975.00  308.926453    0.000000    0.756304    4.942470
   4000.00  309.001465    0.000000    0.756304    4.942470
   4025.00  309.076477    0.000000    0.756304    4.942470
   4050.00  309.151489    0.000000    0.756304    4.942470
   4075.00  309.226501    0.000000    0.756304    4.942470
   4100.00  309.301514    0.000000    0.756304    4.942470
   4125.00  309.376526    0.000000    0.756304    4.942470
   4150.00  309.451538    0.000000    0.756304    4.942470
   4175.00  309.526550    0.000000    0.756304    4.942470
   4200.00  309.601562    0.000000    0.756304    4.942470
   4225.00  309.676575    0.000000    0.756304    4.942470
   4250.00  309.751587    0.000000    0.756304    4.942470
   4275.00  309.826599    0.000000    0.756304    4.942470
   4300.00  309.901611    0.000000    0.756304    4.942470
   4325.00  309.976624    0.000000    0.756304    4.942470
   4350.00  310.051636    0.000000    0.756304    4.942470
   4375.00  310.126648    0.000000    0.756304    4.942470
   4400.00  310.201660    0.000000    0.756304    4.942470
   4425.00  310.276672    0.000000    0.756304    4.942470
   4450.00  310.351685    0.000000    0.756304    4.942470
   4475.00  310.426697    0.000000    0.756304    4.942470
   4500.00  310.501709    0.000000    0.756304    4.942470
   4525.00  310.576721    0.000000    0.756304    4.942470
   4550.00  310.651733    0.000000    0.756304    4.942470
   4575.00  310.726746    0.000000    0.756304    4.942470
   4600.00  310.801758    0.000000    0.756304    4.942470
   4625.00  310.876770    0.000000    0.756304    4.942470
   4650.00  310.951782    0.000000    0.756304    4.942470
   4675.00  311.026794    0.000000    0.756304    4.942470
   4700.00  311.101807    0.000000    0.756304    4.942470
   4725.00  311.176819    0.000000    0.756304    4.942470
   4750.00  311.251831    0.000000    0.756304    4.942470
   4775.00  311.326843    0.000000    0.756304    4.942470
   4800.00  311.401855    0.000000    0.756304    4.942470
   4825.00  311.476868    0.000000    0.756304    4.942470
   4850.00  311.551880    0.000000    0.756304    4.942470
   4875.00  311.626892    0.000000    0.756304    4.942470
   4900.00  311.701904    0.000000    0.756304    4.942470
   4925.00  311.776917    0.000000    0.756304    4.942470
   4950.00  311.851929    0.000000    0.756304    4.942470
   4975.00  311.926941    0.000000    0.756304    4.942470
   5000.00  312.001953    0.000000    0.756304    4.942470
